Version 4.1
SHEET 1 880 680
WIRE 368 0 368 -32
WIRE 368 0 240 0
WIRE 240 48 240 0
WIRE 368 48 368 0
WIRE 368 208 368 128
WIRE 80 224 80 144
WIRE 240 256 240 128
WIRE 304 256 240 256
WIRE 80 352 80 304
WIRE 368 352 368 304
WIRE 368 352 80 352
FLAG 80 144 0
FLAG 368 -32 0
SYMBOL voltage 80 320 R180
WINDOW 0 24 96 Left 2
WINDOW 3 24 16 Left 2
WINDOW 123 0 0 Left 0
WINDOW 39 0 0 Left 0
SYMATTR InstName V1
SYMATTR Value {Vcc}
SYMBOL pnp 304 208 R0
SYMATTR InstName Q1
SYMATTR Value TBJ
SYMBOL res 224 32 R0
SYMATTR InstName Rb
SYMATTR Value {Rb}
SYMBOL res 352 32 R0
SYMATTR InstName Rc
SYMATTR Value {Rc}
TEXT 0 504 Left 2 !.param Vcc=15 Rb=75k Rc=750\n.model TBJ PNP(IS=20f BF=100 VAF=150)
TEXT 0 480 Left 2 !.op
