Version 4
SHEET 1 880 680
WIRE 512 -112 336 -112
WIRE 336 -80 336 -112
WIRE 336 32 336 0
WIRE 512 32 512 -112
WIRE 144 80 32 80
WIRE 240 80 224 80
WIRE 240 112 240 80
WIRE 288 112 240 112
WIRE 32 160 32 80
WIRE 336 208 336 128
WIRE 512 208 512 112
WIRE 512 208 336 208
WIRE 336 240 336 208
WIRE 32 288 32 240
FLAG 32 288 0
FLAG 336 240 0
SYMBOL res 240 64 R90
WINDOW 0 0 56 VBottom 2
WINDOW 3 32 56 VTop 2
SYMATTR InstName rg
SYMATTR Value {Rg}
SYMBOL res 352 16 R180
WINDOW 0 36 76 Left 2
WINDOW 3 36 40 Left 2
SYMATTR InstName rd
SYMATTR Value {Rd}
SYMBOL voltage 512 16 R0
SYMATTR InstName vdd
SYMATTR Value {Vdd}
SYMBOL voltage 32 144 R0
SYMATTR InstName vgg
SYMATTR Value {Vgg}
SYMBOL nmos 288 32 R0
SYMATTR InstName M1
TEXT 16 344 Left 2 !.param Vdd=30 Vgg=10 Rd=390 Rg=1500000\n.model MOSFET NMOS(Kp=0.004 Vto=5)
TEXT 160 232 Left 2 !.op
