Version 4
SHEET 1 880 680
WIRE 544 -144 368 -144
WIRE 368 -112 368 -144
WIRE 544 -16 544 -144
WIRE 368 0 368 -32
WIRE 176 80 96 80
WIRE 320 80 256 80
WIRE 96 144 96 80
WIRE 368 144 368 96
WIRE 544 144 544 64
WIRE 544 144 368 144
WIRE 368 192 368 144
WIRE 96 304 96 224
FLAG 368 192 0
FLAG 96 304 0
SYMBOL voltage 96 128 R0
SYMATTR InstName vgg
SYMATTR Value {Vgg}
SYMBOL voltage 544 -32 R0
SYMATTR InstName Vdd
SYMATTR Value {Vdd}
SYMBOL res 352 -128 R0
SYMATTR InstName rd
SYMATTR Value {Rd}
SYMBOL res 272 64 R90
WINDOW 0 0 56 VBottom 2
WINDOW 3 32 56 VTop 2
SYMATTR InstName rg
SYMATTR Value {Rg}
SYMBOL pmos 320 0 R0
SYMATTR InstName M1
SYMATTR Value MOSFET
TEXT 64 376 Left 2 !.param Vdd=-20 Vgg=-10 Rd=560 Rg=4700000\n.model MOSFET PMOS(Kp=0.003 Vto=-1)
TEXT 344 272 Left 2 !.op
