Version 4
SHEET 1 892 680
WIRE -16 32 -112 32
WIRE 144 32 64 32
WIRE 320 32 144 32
WIRE 144 80 144 32
WIRE 320 112 320 32
WIRE -112 144 -112 32
WIRE 144 160 144 144
WIRE 144 192 144 160
WIRE -112 320 -112 224
WIRE 144 320 144 256
WIRE 144 320 -112 320
WIRE 320 320 320 192
WIRE 320 320 144 320
WIRE 144 352 144 320
FLAG -112 32 A
FLAG 144 352 0
FLAG 144 32 B
FLAG 144 160 C
SYMBOL voltage -112 128 R0
SYMATTR InstName Vcc
SYMATTR Value {Vcc}
SYMBOL res -32 48 R270
WINDOW 0 32 56 VTop 2
WINDOW 3 0 56 VBottom 2
SYMATTR InstName R2
SYMATTR Value {R2}
SYMBOL zener 128 80 R0
SYMATTR InstName D1
SYMATTR Value {DZ1}
SYMBOL zener 160 256 R180
WINDOW 0 24 64 Left 2
WINDOW 3 24 0 Left 2
SYMATTR InstName D2
SYMATTR Value {DZ2}
SYMBOL res 304 96 R0
SYMATTR InstName R1
SYMATTR Value {R1}
TEXT 456 32 Left 2 !.op
TEXT 456 56 Left 2 !.param Vcc=20 R1=750 R2=56\n.model DZ1 D(Is=5f n=1.5 BV=9.1)\n.model DZ2 D(Is=10f n=1.5 BV=5.6)
