Version 4.1
SHEET 1 932 680
WIRE 848 -16 848 -32
WIRE 848 16 848 -16
WIRE 0 64 -80 64
WIRE 160 64 80 64
WIRE 320 64 160 64
WIRE 576 64 400 64
WIRE -80 80 -80 64
WIRE 848 112 848 96
WIRE 848 112 768 112
WIRE 256 128 256 96
WIRE 160 144 160 64
WIRE 224 144 160 144
WIRE 848 144 848 112
WIRE 576 160 576 64
WIRE 576 160 288 160
WIRE 768 160 768 112
WIRE 224 176 160 176
WIRE 576 176 576 160
WIRE 256 240 256 192
WIRE 0 272 -80 272
WIRE 160 272 160 176
WIRE 160 272 80 272
WIRE 432 272 160 272
WIRE 576 272 576 256
WIRE 576 272 512 272
WIRE 848 272 848 224
WIRE -80 288 -80 272
WIRE 576 320 576 272
WIRE -80 400 -80 368
FLAG -80 80 0
FLAG 256 96 Vpp
FLAG 256 240 Vnn
FLAG -80 400 0
FLAG 576 320 0
FLAG 576 160 O
FLAG 768 160 0
FLAG 848 -16 Vpp
FLAG 848 272 Vnn
SYMBOL res 96 48 R90
WINDOW 0 0 56 VBottom 2
WINDOW 3 32 56 VTop 2
SYMATTR InstName R1
SYMATTR Value {R1}
SYMBOL OpAmps\\OP07 256 96 R0
SYMATTR InstName U1
SYMBOL res 96 256 R90
WINDOW 0 0 56 VBottom 2
WINDOW 3 32 56 VTop 2
SYMATTR InstName R3
SYMATTR Value {R1}
SYMBOL voltage -80 272 R0
SYMATTR InstName V1
SYMATTR Value {V1}
SYMBOL res 528 256 R90
WINDOW 0 0 56 VBottom 2
WINDOW 3 32 56 VTop 2
SYMATTR InstName R4
SYMATTR Value {R2}
SYMBOL res 416 48 R90
WINDOW 0 0 56 VBottom 2
WINDOW 3 32 56 VTop 2
SYMATTR InstName R2
SYMATTR Value {R2}
SYMBOL res 560 160 R0
SYMATTR InstName RL
SYMATTR Value {RL}
SYMBOL voltage 848 0 R0
SYMATTR InstName V2
SYMATTR Value {Vs}
SYMBOL voltage 848 128 R0
SYMATTR InstName V3
SYMATTR Value {Vs}
TEXT 120 384 Left 2 !.param Vs=20 V1=3 R1=82k R2=91k RL=91k\n.op
