Version 4
SHEET 1 1236 680
WIRE 368 -208 128 -208
WIRE 560 -208 368 -208
WIRE 128 -160 128 -208
WIRE 560 -112 560 -208
WIRE 368 -96 368 -208
WIRE 128 -32 128 -80
WIRE 560 16 560 -32
WIRE 704 16 560 16
WIRE 928 16 768 16
WIRE 560 48 560 16
WIRE 928 80 928 16
WIRE 256 96 64 96
WIRE 368 96 368 -16
WIRE 368 96 320 96
WIRE 496 96 368 96
WIRE 64 128 64 96
WIRE 560 272 560 144
WIRE 928 272 928 160
WIRE 64 288 64 208
FLAG 64 288 0
FLAG 128 -32 0
FLAG 560 272 0
FLAG 928 272 0
FLAG 64 96 vi
FLAG 368 -208 cc
FLAG 368 96 B
FLAG 560 16 C
FLAG 928 16 vo
SYMBOL voltage 64 112 R0
WINDOW 123 0 0 Left 0
WINDOW 39 0 0 Left 0
SYMATTR InstName Vca
SYMATTR Value SINE(0 0.001 10k)
SYMBOL cap 320 80 R90
WINDOW 0 0 32 VBottom 2
WINDOW 3 32 32 VTop 2
SYMATTR InstName Ci
SYMATTR Value {Cx}
SYMBOL res 352 -112 R0
SYMATTR InstName Rb
SYMATTR Value {Rb}
SYMBOL voltage 128 -176 R0
SYMATTR InstName Vcc
SYMATTR Value {Vcc}
SYMBOL npn 496 48 R0
SYMATTR InstName Q1
SYMATTR Value TBJ
SYMBOL res 544 -128 R0
SYMATTR InstName Rc
SYMATTR Value {Rc}
SYMBOL cap 768 0 R90
WINDOW 0 0 32 VBottom 2
WINDOW 3 32 32 VTop 2
SYMATTR InstName Co
SYMATTR Value {Cx}
SYMBOL res 912 64 R0
SYMATTR InstName Rl
SYMATTR Value 10Meg
TEXT 744 -184 Left 2 !.param Vcc=25 Rb=39k Rc=300 Cx=100u\n.model TBJ NPN(IS=15f BF=75 VAF=475)
TEXT 744 -120 Left 2 !.tran 0 0.001 0
