Version 4
SHEET 1 880 680
WIRE 144 16 96 16
WIRE 240 16 208 16
WIRE 96 64 96 16
WIRE 96 64 -48 64
WIRE 240 64 240 16
WIRE 304 64 240 64
WIRE 448 64 368 64
WIRE 448 96 448 64
WIRE -48 128 -48 64
WIRE 96 128 96 64
WIRE 144 128 96 128
WIRE 240 128 240 64
WIRE 240 128 208 128
WIRE 448 224 448 176
WIRE -48 240 -48 208
FLAG -48 240 0
FLAG 448 224 0
SYMBOL voltage -48 112 R0
SYMATTR InstName Vcc
SYMATTR Value {Vcc}
SYMBOL diode 144 32 R270
WINDOW 0 32 32 VTop 2
WINDOW 3 0 32 VBottom 2
SYMATTR InstName D1
SYMATTR Value {D1}
SYMBOL diode 144 144 R270
WINDOW 0 32 32 VTop 2
WINDOW 3 0 32 VBottom 2
SYMATTR InstName D2
SYMATTR Value {D2}
SYMBOL LED 304 80 R270
WINDOW 0 72 32 VTop 2
WINDOW 3 0 32 VBottom 2
SYMATTR InstName D3
SYMATTR Value {D3}
SYMBOL res 432 80 R0
SYMATTR InstName R1
SYMATTR Value {R1}
TEXT -56 304 Left 2 !.param Vcc=25 R1=390\n.model D1 D(Is=6f n=1.1)\n.model D2 D(Is=20f n=1.9)\n.model D3 D(Is=28f n=2.5)
TEXT 312 304 Left 2 !.op
