* SPICE Model
.model D0 D(Is=229n n=7.06 Rs=68.1m TT=1.07u CJO=20.5p M=352m BV=50 IBV=9u)
